
**** 10/06/20 16:36:49 ******* PSpice Lite (March 2016) ******* ID# 10813 ****

 ** Profile: "SCHEMATIC1-h2"  [ D:\pspice\hw2\hw2-PSpiceFiles\SCHEMATIC1\h2.sim ] 


 ****     CIRCUIT DESCRIPTION


******************************************************************************




** Creating circuit file "h2.cir" 
** WARNING: THIS AUTOMATICALLY GENERATED FILE MAY BE OVERWRITTEN BY SUBSEQUENT SIMULATIONS

*Libraries: 
* Profile Libraries :
* Local Libraries :
.LIB "../../../hw2-pspicefiles/hw2.lib" 
* From [PSPICE NETLIST] section of C:\Users\ZWK\AppData\Roaming\SPB_Data\cdssetup\OrCAD_PSpice\17.2.0\PSpice.ini file:
.lib "nomd.lib" 

*Analysis directives: 
.TRAN  0 100m 0 0.0000001 
.OPTIONS ADVCONV
.PROBE64 V(alias(*)) I(alias(*)) W(alias(*)) D(alias(*)) NOISE(alias(*)) 
.INC "..\SCHEMATIC1.net" 



**** INCLUDING SCHEMATIC1.net ****
* source HW2
V_V2         N14473 0  AC 0
+SIN 0 6 60 0 0 0
D_D1         N14473 N14480 Dbreak 
C_C1         0 N14480  0.000883  TC=0,0 
R_R1         0 N14480  1k TC=0,0 

**** RESUMING h2.cir ****
.END

**** 10/06/20 16:36:49 ******* PSpice Lite (March 2016) ******* ID# 10813 ****

 ** Profile: "SCHEMATIC1-h2"  [ D:\pspice\hw2\hw2-PSpiceFiles\SCHEMATIC1\h2.sim ] 


 ****     Diode MODEL PARAMETERS


******************************************************************************




               Dbreak          
          IS    3.000000E-12 


**** 10/06/20 16:36:49 ******* PSpice Lite (March 2016) ******* ID# 10813 ****

 ** Profile: "SCHEMATIC1-h2"  [ D:\pspice\hw2\hw2-PSpiceFiles\SCHEMATIC1\h2.sim ] 


 ****     INITIAL TRANSIENT SOLUTION       TEMPERATURE =   27.000 DEG C


******************************************************************************



 NODE   VOLTAGE     NODE   VOLTAGE     NODE   VOLTAGE     NODE   VOLTAGE


(N14473)    0.0000 (N14480)-24.98E-24 




    VOLTAGE SOURCE CURRENTS
    NAME         CURRENT

    V_V2         2.498E-26

    TOTAL POWER DISSIPATION   0.00E+00  WATTS



          JOB CONCLUDED

**** 10/06/20 16:36:49 ******* PSpice Lite (March 2016) ******* ID# 10813 ****

 ** Profile: "SCHEMATIC1-h2"  [ D:\pspice\hw2\hw2-PSpiceFiles\SCHEMATIC1\h2.sim ] 


 ****     JOB STATISTICS SUMMARY


******************************************************************************



  Total job time (using Solver 1)   =       16.16
