
**** 09/16/20 16:33:12 ******* PSpice Lite (March 2016) ******* ID# 10813 ****

 ** Profile: "SCHEMATIC1-bias"  [ D:\pspice\hw1\hw1-pspicefiles\schematic1\bias.sim ] 


 ****     CIRCUIT DESCRIPTION


******************************************************************************




** Creating circuit file "bias.cir" 
** WARNING: THIS AUTOMATICALLY GENERATED FILE MAY BE OVERWRITTEN BY SUBSEQUENT SIMULATIONS

*Libraries: 
* Profile Libraries :
* Local Libraries :
.LIB "../../../hw1-pspicefiles/hw1.lib" 
* From [PSPICE NETLIST] section of C:\Users\ZWK\AppData\Roaming\SPB_Data\cdssetup\OrCAD_PSpice\17.2.0\PSpice.ini file:
.lib "nomd.lib" 

*Analysis directives: 
.OPTIONS ADVCONV
.PROBE64 V(alias(*)) I(alias(*)) W(alias(*)) D(alias(*)) NOISE(alias(*)) 
.INC "..\SCHEMATIC1.net" 



**** INCLUDING SCHEMATIC1.net ****
* source HW1
D_D1         N14405 N14364 Dbreak 
D_D2         N14405 N14364 Dbreak 
R_R1         0 N14364  1k TC=0,0 
V_V1         N14405 0 0Vdc

**** RESUMING bias.cir ****
.END

INFO(ORPSIM-15423): Unable to find index file hw1.ind for library file hw1.lib.

INFO(ORPSIM-15422): Making new index file hw1.ind for library file hw1.lib.

Index has 1 entries from 1 file(s).

**** 09/16/20 16:33:12 ******* PSpice Lite (March 2016) ******* ID# 10813 ****

 ** Profile: "SCHEMATIC1-bias"  [ D:\pspice\hw1\hw1-pspicefiles\schematic1\bias.sim ] 


 ****     Diode MODEL PARAMETERS


******************************************************************************




               Dbreak          
          IS    1.000000E-12 


**** 09/16/20 16:33:12 ******* PSpice Lite (March 2016) ******* ID# 10813 ****

 ** Profile: "SCHEMATIC1-bias"  [ D:\pspice\hw1\hw1-pspicefiles\schematic1\bias.sim ] 


 ****     SMALL SIGNAL BIAS SOLUTION       TEMPERATURE =   27.000 DEG C


******************************************************************************



 NODE   VOLTAGE     NODE   VOLTAGE     NODE   VOLTAGE     NODE   VOLTAGE


(N14364)-4.790E-27 (N14405)    0.0000 




    VOLTAGE SOURCE CURRENTS
    NAME         CURRENT

    V_V1         4.790E-30

    TOTAL POWER DISSIPATION   0.00E+00  WATTS



          JOB CONCLUDED

**** 09/16/20 16:33:12 ******* PSpice Lite (March 2016) ******* ID# 10813 ****

 ** Profile: "SCHEMATIC1-bias"  [ D:\pspice\hw1\hw1-pspicefiles\schematic1\bias.sim ] 


 ****     JOB STATISTICS SUMMARY


******************************************************************************



  Total job time (using Solver 1)   =        1.53
