
**** 09/22/20 10:13:39 ******* PSpice Lite (March 2016) ******* ID# 10813 ****

 ** Profile: "SCHEMATIC1-sim"  [ D:\pspice\hw1\hw1-pspicefiles\schematic1\sim.sim ] 


 ****     CIRCUIT DESCRIPTION


******************************************************************************




** Creating circuit file "sim.cir" 
** WARNING: THIS AUTOMATICALLY GENERATED FILE MAY BE OVERWRITTEN BY SUBSEQUENT SIMULATIONS

*Libraries: 
* Profile Libraries :
* Local Libraries :
.LIB "../../../hw1-pspicefiles/hw1.lib" 
* From [PSPICE NETLIST] section of C:\Users\ZWK\AppData\Roaming\SPB_Data\cdssetup\OrCAD_PSpice\17.2.0\PSpice.ini file:
.lib "nomd.lib" 

*Analysis directives: 
.DC LIN V_V1 0 2 0.001 
.OPTIONS ADVCONV
.PROBE64 V(alias(*)) I(alias(*)) W(alias(*)) D(alias(*)) NOISE(alias(*)) 
.INC "..\SCHEMATIC1.net" 



**** INCLUDING SCHEMATIC1.net ****
* source HW1
D_D1         N14405 0 Dbreak 
D_D2         N14405 0 Dbreak 
V_V1         N14405 0 0Vdc

**** RESUMING sim.cir ****
.END

**** 09/22/20 10:13:39 ******* PSpice Lite (March 2016) ******* ID# 10813 ****

 ** Profile: "SCHEMATIC1-sim"  [ D:\pspice\hw1\hw1-pspicefiles\schematic1\sim.sim ] 


 ****     Diode MODEL PARAMETERS


******************************************************************************




               Dbreak          
          IS    1.000000E-12 


Starting pseudo-transient algorithm.

ERROR -- Convergence problem in DC sweep


  Last node voltages tried were:

 NODE   VOLTAGE     NODE   VOLTAGE     NODE   VOLTAGE     NODE   VOLTAGE


(N14405)    1.2923 


  These supply currents failed to converge:

    I(V_V1)                   =   -4.702nA  \   -10.00GA

  These devices failed to converge:
    D_D1      D_D2      

ERROR(ORPSIM-15659): Discontinuing simulation due to convergence problem

**** Interrupt ****
