
**** 11/17/20 21:08:42 ******* PSpice Lite (March 2016) ******* ID# 10813 ****

 ** Profile: "SCHEMATIC1-sim"  [ D:\pspice\hw7\hw7_1-PSpiceFiles\SCHEMATIC1\sim.sim ] 


 ****     CIRCUIT DESCRIPTION


******************************************************************************




** Creating circuit file "sim.cir" 
** WARNING: THIS AUTOMATICALLY GENERATED FILE MAY BE OVERWRITTEN BY SUBSEQUENT SIMULATIONS

*Libraries: 
* Profile Libraries :
* Local Libraries :
.LIB "../../../hw7_1-pspicefiles/hw7_1.lib" 
* From [PSPICE NETLIST] section of C:\Users\ZWK\AppData\Roaming\SPB_Data\cdssetup\OrCAD_PSpice\17.2.0\PSpice.ini file:
.lib "nomd.lib" 

*Analysis directives: 
.DC LIN V_V1 0v 5v 0.0001v 
.OPTIONS ADVCONV
.PROBE64 V(alias(*)) I(alias(*)) W(alias(*)) D(alias(*)) NOISE(alias(*)) 
.INC "..\SCHEMATIC1.net" 



**** INCLUDING SCHEMATIC1.net ****
* source HW7_1
M_M1         N14437 N14441 0 0 Mbreakn  
+ L=2um  
+ W=50um         
R_R1         N14437 N14430  10k TC=0,0 
V_V1         N14441 0 0Vdc
V_V2         N14430 0 5Vdc

**** RESUMING sim.cir ****
.END

**** 11/17/20 21:08:42 ******* PSpice Lite (March 2016) ******* ID# 10813 ****

 ** Profile: "SCHEMATIC1-sim"  [ D:\pspice\hw7\hw7_1-PSpiceFiles\SCHEMATIC1\sim.sim ] 


 ****     MOSFET MODEL PARAMETERS


******************************************************************************




               Mbreakn         
               NMOS            
       LEVEL    1            
           L  100.000000E-06 
           W  100.000000E-06 
          LD   80.000000E-09 
         VTO     .7          
          KP  134.288900E-06 
       GAMMA    0            
         PHI     .9          
      LAMBDA    0            
          IS   10.000000E-15 
          JS   10.000000E-09 
          PB     .9          
        PBSW     .9          
          CJ  560.000000E-06 
        CJSW    3.500000E-12 
          MJ     .45         
        MJSW     .2          
        CGSO    0            
        CGDO  400.000000E-12 
        CGBO    0            
        NSUB  900.000000E+12 
         TOX    9.000000E-09 
          XJ    0            
          UO  350            
       UCRIT   10.000000E+03 
      DIOMOD    1            
         VFB    0            
        LETA    0            
        WETA    0            
          U0    0            
        TEMP    0            
         VDD    5            
       XPART    0            



          JOB CONCLUDED

**** 11/17/20 21:08:42 ******* PSpice Lite (March 2016) ******* ID# 10813 ****

 ** Profile: "SCHEMATIC1-sim"  [ D:\pspice\hw7\hw7_1-PSpiceFiles\SCHEMATIC1\sim.sim ] 


 ****     JOB STATISTICS SUMMARY


******************************************************************************



  Total job time (using Solver 1)   =         .48
