
**** 10/15/20 11:04:37 ******* PSpice Lite (March 2016) ******* ID# 10813 ****

 ** Profile: "SCHEMATIC1-sim3_1"  [ D:\pspice\hw3\hw3_1-pspicefiles\schematic1\sim3_1.sim ] 


 ****     CIRCUIT DESCRIPTION


******************************************************************************




** Creating circuit file "sim3_1.cir" 
** WARNING: THIS AUTOMATICALLY GENERATED FILE MAY BE OVERWRITTEN BY SUBSEQUENT SIMULATIONS

*Libraries: 
* Profile Libraries :
* Local Libraries :
.LIB "../../../hw3_1-pspicefiles/hw3_1.lib" 
* From [PSPICE NETLIST] section of C:\Users\ZWK\AppData\Roaming\SPB_Data\cdssetup\OrCAD_PSpice\17.2.0\PSpice.ini file:
.lib "nomd.lib" 

*Analysis directives: 
.DC LIN V_V1 0.49v 0.51v 0.00001v 
.OPTIONS ADVCONV
.PROBE64 V(alias(*)) I(alias(*)) W(alias(*)) D(alias(*)) NOISE(alias(*)) 
.INC "..\SCHEMATIC1.net" 



**** INCLUDING SCHEMATIC1.net ****
* source HW3_1
Q_Q1         N14385 N14366 0 Qbreakn 
V_V1         N14366 0 0.5Vdc
V_V2         N14385 0 1Vdc

**** RESUMING sim3_1.cir ****
.END

**** 10/15/20 11:04:37 ******* PSpice Lite (March 2016) ******* ID# 10813 ****

 ** Profile: "SCHEMATIC1-sim3_1"  [ D:\pspice\hw3\hw3_1-pspicefiles\schematic1\sim3_1.sim ] 


 ****     BJT MODEL PARAMETERS


******************************************************************************




               Qbreakn         
               NPN             
       LEVEL    1            
          IS  100.000000E-18 
          BF  100            
          NF    1            
         VAF  100            
          BR    1            
          NR    1            
         ISS    0            
          RE    0            
          RC    0            
         CJE    0            
         VJE     .75         
         CJC    0            
         VJC     .75         
         MJC     .33         
        XCJC    1            
         CJS    0            
         VJS     .75         
          KF    0            
          AF    1            
          CN    2.42         
           D     .87         



          JOB CONCLUDED

**** 10/15/20 11:04:37 ******* PSpice Lite (March 2016) ******* ID# 10813 ****

 ** Profile: "SCHEMATIC1-sim3_1"  [ D:\pspice\hw3\hw3_1-pspicefiles\schematic1\sim3_1.sim ] 


 ****     JOB STATISTICS SUMMARY


******************************************************************************



  Total job time (using Solver 1)   =         .05
