
**** 11/10/20 21:17:18 ******* PSpice Lite (March 2016) ******* ID# 10813 ****

 ** Profile: "SCHEMATIC1-sim"  [ D:\pspice\hw6\hw6-pspicefiles\schematic1\sim.sim ] 


 ****     CIRCUIT DESCRIPTION


******************************************************************************




** Creating circuit file "sim.cir" 
** WARNING: THIS AUTOMATICALLY GENERATED FILE MAY BE OVERWRITTEN BY SUBSEQUENT SIMULATIONS

*Libraries: 
* Profile Libraries :
* Local Libraries :
.LIB "../../../hw6-pspicefiles/hw6.lib" 
* From [PSPICE NETLIST] section of C:\Users\ZWK\AppData\Roaming\SPB_Data\cdssetup\OrCAD_PSpice\17.2.0\PSpice.ini file:
.lib "nomd.lib" 

*Analysis directives: 
.TRAN  0 0.1 0 0.00001 
.OPTIONS ADVCONV
.PROBE64 V(alias(*)) I(alias(*)) W(alias(*)) D(alias(*)) NOISE(alias(*)) 
.INC "..\SCHEMATIC1.net" 



**** INCLUDING SCHEMATIC1.net ****
* source HW6
M_M1         N14438 N14426 0 0 Mbreakn  
+ L=2um  
+ W=51.99um         
M_M2         N14438 N14438 N14466 N14466 Mbreakp  
+ L=2um  
+ W=5um         
V_V2         N14466 0 5Vdc
V_V3         N14426 0  AC 0
+SIN 1v 1v 100Hz 0 0 0

**** RESUMING sim.cir ****
.END

**** 11/10/20 21:17:18 ******* PSpice Lite (March 2016) ******* ID# 10813 ****

 ** Profile: "SCHEMATIC1-sim"  [ D:\pspice\hw6\hw6-pspicefiles\schematic1\sim.sim ] 


 ****     MOSFET MODEL PARAMETERS


******************************************************************************




               Mbreakn         Mbreakp         
               NMOS            PMOS            
       LEVEL    1               1            
           L  100.000000E-06  100.000000E-06 
           W  100.000000E-06  100.000000E-06 
          LD   80.000000E-09   90.000000E-09 
         VTO     .7             -.8          
          KP  134.288900E-06   38.368260E-06 
       GAMMA    0               0            
         PHI     .9              .8          
      LAMBDA    0               0            
          IS   10.000000E-15   10.000000E-15 
          JS   10.000000E-09    5.000000E-09 
          PB     .9              .9          
        PBSW     .9              .9          
          CJ  560.000000E-06  940.000000E-06 
        CJSW    3.500000E-12    3.200000E-12 
          MJ     .45                         
        MJSW     .2              .3          
        CGSO    0               0            
        CGDO  400.000000E-12  300.000000E-12 
        CGBO    0               0            
        NSUB  900.000000E+12  500.000000E+12 
         TOX    9.000000E-09    9.000000E-09 
          XJ    0               0            
          UO  350             100            
       UCRIT   10.000000E+03   10.000000E+03 
      DIOMOD    1               1            
         VFB    0               0            
        LETA    0               0            
        WETA    0               0            
          U0    0               0            
        TEMP    0               0            
         VDD    5               5            
       XPART    0               0            


**** 11/10/20 21:17:18 ******* PSpice Lite (March 2016) ******* ID# 10813 ****

 ** Profile: "SCHEMATIC1-sim"  [ D:\pspice\hw6\hw6-pspicefiles\schematic1\sim.sim ] 


 ****     INITIAL TRANSIENT SOLUTION       TEMPERATURE =   27.000 DEG C


******************************************************************************



 NODE   VOLTAGE     NODE   VOLTAGE     NODE   VOLTAGE     NODE   VOLTAGE


(N14426)    1.0000 (N14438)    2.4001 (N14466)    5.0000 




    VOLTAGE SOURCE CURRENTS
    NAME         CURRENT

    V_V2        -1.707E-04
    V_V3         0.000E+00

    TOTAL POWER DISSIPATION   8.54E-04  WATTS



          JOB CONCLUDED

**** 11/10/20 21:17:18 ******* PSpice Lite (March 2016) ******* ID# 10813 ****

 ** Profile: "SCHEMATIC1-sim"  [ D:\pspice\hw6\hw6-pspicefiles\schematic1\sim.sim ] 


 ****     JOB STATISTICS SUMMARY


******************************************************************************



  Total job time (using Solver 1)   =         .19
