
**** 12/07/20 22:41:41 ******* PSpice Lite (March 2016) ******* ID# 10813 ****

 ** Profile: "SCHEMATIC1-sim2"  [ D:\pspice\Lab4\Lab4_1-PSpiceFiles\SCHEMATIC1\sim2.sim ] 


 ****     CIRCUIT DESCRIPTION


******************************************************************************




** Creating circuit file "sim2.cir" 
** WARNING: THIS AUTOMATICALLY GENERATED FILE MAY BE OVERWRITTEN BY SUBSEQUENT SIMULATIONS

*Libraries: 
* Profile Libraries :
* Local Libraries :
.LIB "../../../lab4_1-pspicefiles/lab4_1.lib" 
* From [PSPICE NETLIST] section of C:\Users\ZWK\AppData\Roaming\SPB_Data\cdssetup\OrCAD_PSpice\17.2.0\PSpice.ini file:
.lib "nomd.lib" 

*Analysis directives: 
.TRAN  0 100ms 0 0.0001 
.OPTIONS ADVCONV
.PROBE64 V(alias(*)) I(alias(*)) W(alias(*)) D(alias(*)) NOISE(alias(*)) 
.INC "..\SCHEMATIC1.net" 



**** INCLUDING SCHEMATIC1.net ****
* source LAB4_1
M_M1         N14453 N14453 N14343 N14343 MbreakN  
+ L=2um  
+ W=52um         
M_M2         N14343 N14438 0 0 Mbreakn  
+ L=2um  
+ W=52um         
V_V1         N14453 0 3Vdc
M_M3         N14343 N14438 0 0 MbreakN  
+ L=2um  
+ W=52um         
V_V2         N14438 0  AC 0
+SIN 1 0.01 100Hz 0 0 0

**** RESUMING sim2.cir ****
.END

**** 12/07/20 22:41:41 ******* PSpice Lite (March 2016) ******* ID# 10813 ****

 ** Profile: "SCHEMATIC1-sim2"  [ D:\pspice\Lab4\Lab4_1-PSpiceFiles\SCHEMATIC1\sim2.sim ] 


 ****     MOSFET MODEL PARAMETERS


******************************************************************************




               MbreakN         
               NMOS            
       LEVEL    1            
           L  100.000000E-06 
           W  100.000000E-06 
          LD   80.000000E-09 
         VTO     .7          
          KP  134.288900E-06 
       GAMMA     .1          
         PHI     .9          
      LAMBDA     .1          
          IS   10.000000E-15 
          JS   10.000000E-09 
          PB     .9          
        PBSW     .9          
          CJ  560.000000E-06 
        CJSW    3.500000E-12 
          MJ     .45         
        MJSW     .2          
        CGSO    0            
        CGDO  400.000000E-12 
        CGBO    0            
        NSUB  900.000000E+12 
         TOX    9.000000E-09 
          XJ    0            
          UO  350            
       UCRIT   10.000000E+03 
      DIOMOD    1            
         VFB    0            
        LETA    0            
        WETA    0            
          U0    0            
        TEMP    0            
         VDD    5            
       XPART    0            


**** 12/07/20 22:41:41 ******* PSpice Lite (March 2016) ******* ID# 10813 ****

 ** Profile: "SCHEMATIC1-sim2"  [ D:\pspice\Lab4\Lab4_1-PSpiceFiles\SCHEMATIC1\sim2.sim ] 


 ****     INITIAL TRANSIENT SOLUTION       TEMPERATURE =   27.000 DEG C


******************************************************************************



 NODE   VOLTAGE     NODE   VOLTAGE     NODE   VOLTAGE     NODE   VOLTAGE


(N14343)    1.8622 (N14438)    1.0000 (N14453)    3.0000 




    VOLTAGE SOURCE CURRENTS
    NAME         CURRENT

    V_V1        -4.052E-04
    V_V2         0.000E+00

    TOTAL POWER DISSIPATION   1.22E-03  WATTS



          JOB CONCLUDED

**** 12/07/20 22:41:41 ******* PSpice Lite (March 2016) ******* ID# 10813 ****

 ** Profile: "SCHEMATIC1-sim2"  [ D:\pspice\Lab4\Lab4_1-PSpiceFiles\SCHEMATIC1\sim2.sim ] 


 ****     JOB STATISTICS SUMMARY


******************************************************************************



  Total job time (using Solver 1)   =         .06
