
**** 10/15/20 11:14:29 ******* PSpice Lite (March 2016) ******* ID# 10813 ****

 ** Profile: "SCHEMATIC1-sim3_2"  [ D:\pspice\hw3\hw3_2-pspicefiles\schematic1\sim3_2.sim ] 


 ****     CIRCUIT DESCRIPTION


******************************************************************************




** Creating circuit file "sim3_2.cir" 
** WARNING: THIS AUTOMATICALLY GENERATED FILE MAY BE OVERWRITTEN BY SUBSEQUENT SIMULATIONS

*Libraries: 
* Profile Libraries :
* Local Libraries :
.LIB "../../../hw3_2-pspicefiles/hw3_2.lib" 
* From [PSPICE NETLIST] section of C:\Users\ZWK\AppData\Roaming\SPB_Data\cdssetup\OrCAD_PSpice\17.2.0\PSpice.ini file:
.lib "nomd.lib" 

*Analysis directives: 
.DC LIN V_V3 0.45V 0.55V 0.0001 
.OPTIONS ADVCONV
.PROBE64 V(alias(*)) I(alias(*)) W(alias(*)) D(alias(*)) NOISE(alias(*)) 
.INC "..\SCHEMATIC1.net" 



**** INCLUDING SCHEMATIC1.net ****
* source HW3_2
Q_Q1         N143561 N14428 0 Qbreakn 
R_R1         N143561 N14419  5k TC=0,0 
V_V2         N14419 0 3Vdc
V_V3         N14428 0  AC 0
+SIN 0.5v 0.001v 100 0 0 0

**** RESUMING sim3_2.cir ****
.END

**** 10/15/20 11:14:29 ******* PSpice Lite (March 2016) ******* ID# 10813 ****

 ** Profile: "SCHEMATIC1-sim3_2"  [ D:\pspice\hw3\hw3_2-pspicefiles\schematic1\sim3_2.sim ] 


 ****     BJT MODEL PARAMETERS


******************************************************************************




               Qbreakn         
               NPN             
       LEVEL    1            
          IS  100.000000E-18 
          BF  100            
          NF    1            
         VAF  100            
          BR    1            
          NR    1            
         ISS    0            
          RE    0            
          RC    0            
         CJE    0            
         VJE     .75         
         CJC    0            
         VJC     .75         
         MJC     .33         
        XCJC    1            
         CJS    0            
         VJS     .75         
          KF    0            
          AF    1            
          CN    2.42         
           D     .87         



          JOB CONCLUDED

**** 10/15/20 11:14:29 ******* PSpice Lite (March 2016) ******* ID# 10813 ****

 ** Profile: "SCHEMATIC1-sim3_2"  [ D:\pspice\hw3\hw3_2-pspicefiles\schematic1\sim3_2.sim ] 


 ****     JOB STATISTICS SUMMARY


******************************************************************************



  Total job time (using Solver 1)   =         .02
