
**** 10/10/20 17:22:43 ******* PSpice Lite (March 2016) ******* ID# 10813 ****

 ** Profile: "SCHEMATIC1-sim3_2"  [ D:\pspice\hw3\hw3_2-PSpiceFiles\SCHEMATIC1\sim3_2.sim ] 


 ****     CIRCUIT DESCRIPTION


******************************************************************************




** Creating circuit file "sim3_2.cir" 
** WARNING: THIS AUTOMATICALLY GENERATED FILE MAY BE OVERWRITTEN BY SUBSEQUENT SIMULATIONS

*Libraries: 
* Profile Libraries :
* Local Libraries :
.LIB "../../../hw3_2-pspicefiles/hw3_2.lib" 
* From [PSPICE NETLIST] section of C:\Users\ZWK\AppData\Roaming\SPB_Data\cdssetup\OrCAD_PSpice\17.2.0\PSpice.ini file:
.lib "nomd.lib" 

*Analysis directives: 
.DC LIN V_V1 0 1V 0.001 
.OPTIONS ADVCONV
.PROBE64 V(alias(*)) I(alias(*)) W(alias(*)) D(alias(*)) NOISE(alias(*)) 
.INC "..\SCHEMATIC1.net" 



**** INCLUDING SCHEMATIC1.net ****
* source HW3_2
V_V1         N14428 0 0Vdc
Q_Q1         N143561 N14428 0 Qbreakn 
R_R1         N143561 VCC_BAR  5k TC=0,0 

**** RESUMING sim3_2.cir ****
.END

INFO(ORPSIM-15423): Unable to find index file hw3_2.ind for library file hw3_2.lib.

INFO(ORPSIM-15422): Making new index file hw3_2.ind for library file hw3_2.lib.

Index has 1 entries from 1 file(s).

ERROR(ORPSIM-15141): Less than 2 connections at node VCC_BAR.
